/batch
/config,noeldb,1     ! force off writing results to database
*get,_wallstrt,active,,time,wall
! ANSYS input file written by Workbench version 19.1 RELEASE
! File used for geometry attach: C:\Users\JPassos\Desktop\Simulations\coffee-table\simulation_files\dp0\SYS\DM\SYS.scdoc
/title,simulation--Static Structural (A5)
*DIM,_wb_ProjectScratch_dir,string,248
_wb_ProjectScratch_dir(1) = 'C:\Users\JPassos\Desktop\Simulations\coffee-table\_ProjectScratch\Scr3683\'
*DIM,_wb_SolverFiles_dir,string,248
_wb_SolverFiles_dir(1) = 'C:\Users\JPassos\Desktop\Simulations\coffee-table\simulation_files\dp0\SYS\MECH\'
*DIM,_wb_userfiles_dir,string,248
_wb_userfiles_dir(1) = 'C:\Users\JPassos\Desktop\Simulations\coffee-table\simulation_files\user_files\'
/com,--- Data in consistent NMM units. See Solving Units in the help system for more information.
/units,MPA
/nopr
/wb,file,start              !  signify a WB generated input file
/prep7
! Turn off shape checking because checks already performed inside WB mesher.
! See help system for more information.
SHPP,OFF,,NOWARN
/nolist
etcon,set             ! allow ANSYS to choose best KEYOP's for 180x elements
/com,*********** Nodes for the whole assembly ***********
nblock,3,,2691
(1i9,3e20.9e3)
        1     4.900000000E+01    -4.900000000E+01     7.000000000E+00
        2     4.900000000E+01     4.900000000E+01     7.000000000E+00
        3     4.900000000E+01    -3.920000000E+01     7.000000000E+00
        4     4.900000000E+01    -2.940000000E+01     7.000000000E+00
        5     4.900000000E+01    -1.960000000E+01     7.000000000E+00
        6     4.900000000E+01    -9.800000000E+00     7.000000000E+00
        7     4.900000000E+01     1.040834086E-14     7.000000000E+00
        8     4.900000000E+01     9.800000000E+00     7.000000000E+00
        9     4.900000000E+01     1.960000000E+01     7.000000000E+00
       10     4.900000000E+01     2.940000000E+01     7.000000000E+00
       11     4.900000000E+01     3.920000000E+01     7.000000000E+00
       12     5.500000000E+01    -4.900000000E+01     7.000000000E+00
       13     5.500000000E+01     4.900000000E+01     7.000000000E+00
       14     5.500000000E+01    -3.920000000E+01     7.000000000E+00
       15     5.500000000E+01    -2.940000000E+01     7.000000000E+00
       16     5.500000000E+01    -1.960000000E+01     7.000000000E+00
       17     5.500000000E+01    -9.800000000E+00     7.000000000E+00
       18     5.500000000E+01     1.040834086E-14     7.000000000E+00
       19     5.500000000E+01     9.800000000E+00     7.000000000E+00
       20     5.500000000E+01     1.960000000E+01     7.000000000E+00
! ... 2428 like lines cut
/wb,elem,start            !  set before creation of elements
/com,*********** Elements for Body 1 "SYS\S_lido" ***********
et,1,187
eblock,19,solid,,827
(19i9)
        1        1        1        1        0        0        0        0       10        0        1       70      103      334      375      926     1064      929      931
     1067     1848
        1        1        1        1        0        0        0        0       10        0        2       70      375      334      329      931     1848      929      928
     1834     1832
        1        1        1        1        0        0        0        0       10        0        3       70      369      103      375      930     1065      926      931
     1912     1067
        1        1        1        1        0        0        0        0       10        0        4       70      104      334      103      927     1070      929      926
     1063     1064
        1        1        1        1        0        0        0        0       10        0        5       69       70      334      329      918      929      923      921
      928     1832
        1        1        1        1        0        0        0        0       10        0        6      329      334      391      375     1832     1849     1835     1834
     1848     1932
        1        1        1        1        0        0        0        0       10        0        7       70      369      375      329      930     1912      931      928
     1833     1834
        1        1        1        1        0        0        0        0       10        0        8      103      369      379      375     1065     1913     1068     1067
     1912     1931
        1        1        1        1        0        0        0        0       10        0        9       70      103      369       71      926     1065      930      925
      934      935
        1        1        1        1        0        0        0        0       10        0       10       69      334       70      104      923      929      918      919
     1070      927
! ... 1635 like lines cut
!Material Id = {F8F9E8EB-21EA-433F-A472-32F5C73DAB71}
/wb,elem,end               !  done creating elements
/com,*********** Send User Defined Coordinate System(s) ***********
csys,0
toffst,273.15,  ! Temperature offset from absolute zero
/com,*********** Set Reference Temperature ***********
tref,22.
/wb,mat,start              !  starting to send materials
/com,*********** Send Materials ***********
Temperature = 'TEMP' ! Temperature
MP,DENS,1,7.85e-09,	! tonne mm^-3
MP,ALPX,1,1.2e-05,	! C^-1
MP,C,1,434000000,	! mm^2 s^-2 C^-1
MP,KXX,1,60.5,	! tonne mm s^-3 C^-1
MP,RSVX,1,0.00017,	! ohm mm
MP,EX,1,200000,	! tonne s^-2 mm^-1
MP,NUXY,1,0.3,
MP,MURX,1,10000,

/wb,mat,end                !  done sending materials
!************************* Model Summary ********************
!SYS\S_lido,	Structural Steel,	matid,	1
!************************* End Model Summary ********************
! get the diagonal of the bounding box. Needed later for other things
*get,_xmin,node,,mnloc,x
*get,_ymin,node,,mnloc,y
*get,_zmin,node,,mnloc,z
*get,_xmax,node,,mxloc,x
*get,_ymax,node,,mxloc,y
*get,_zmax,node,,mxloc,z
_ASMDIAG=(_xmax-_xmin)*(_xmax-_xmin)+(_ymax-_ymin)*(_ymax-_ymin)+(_zmax-_zmin)*(_zmax-_zmin)
_ASMDIAG=SQRT(_ASMDIAG)
/wb,contact,start          !  starting to send contact
/wb,contact,end            !  done creating contacts
/golist
/wb,load,start             !  starting to send loads
/com,*********** Fixed Supports ***********
CMBLOCK,_FIXEDSU,NODE,      252
(8i10)
        35        36        37        38        39        40        41        42
        43        44        45        46        47        48        49        50
        51        52        53        54        55        56        57        58
        59        60        61        62        63        64        65        66
        67        68        69        70        71        72        73        74
        75        76        77        78        79        80        81        82
        83        84        85        86        87        88        89        90
        91        92        93        94        95        96        97        98
        99       100       101       102       103       104       105       106
       107       108       109       110       111       112       113       114
       115       116       117       118       733       734       735       736
       737       744       745       746       747       748       751       752
       753       757       758       759       763       764       765       769
       770       771       774       775       776       780       781       782
       786       787       788       792       793       794       798       799
       804       805       806       807       808       810       811       812
       815       816       817       820       821       822       825       826
       827       831       832       833       838       839       840       845
       846       847       852       853       854       859       860       865
       866       867       868       869       872       873       874       875
! ... 12 like lines cut
cmsel,s,_FIXEDSU
d,all,all
nsel,all
/com,*********** Define Force Using Surface Effect Elements ***********
local,12,0,0.,0.,0.,0.,0.,0.
csys,0
et,2,154
eblock,10,,,84
(15i9)
      828        2        2        2       12      175      227      239      239     1353     1580      239     1355
      829        2        2        2       12      196      249      250      250     1457     1644      250     1458
      830        2        2        2       12      197      198      247      247     1463     1470      247     1464
      831        2        2        2       12      187      249      196      196     1402     1457      196     1398
      832        2        2        2       12      198      246      247      247     1469     1630      247     1470
      833        2        2        2       12      199      245      246      246     1474     1625      246     1475
      834        2        2        2       12      177      178      236      236     1363     1368      236     1364
      835        2        2        2       12      193      194      252      252     1437     1446      252     1438
      836        2        2        2       12      202      242      243      243     1489     1610      243     1490
      837        2        2        2       12      195      196      250      250     1451     1458      250     1452
      838        2        2        2       12      179      180      234      234     1369     1374      234     1370
      839        2        2        2       12      199      200      245      245     1473     1480      245     1474
      840        2        2        2       12      200      244      245      245     1479     1620      245     1480
      841        2        2        2       12      198      199      246      246     1468     1475      246     1469
      842        2        2        2       12      197      247      248      248     1464     1635      248     1465
      843        2        2        2       12      204      240      241      241     1501     1601      241     1502
      844        2        2        2       12      187      197      248      248     1399     1465      248     1401
      845        2        2        2       12      187      238      249      249     1400     1593      249     1402
      846        2        2        2       12      187      248      238      238     1401     1592      238     1400
      847        2        2        2       12      203      204      241      241     1494     1502      241     1495
! ... 65 like lines cut
esel,s,type,,2
keyop,2,2,1                ! Apply load in local coordinate system
keyop,2,7,1                ! Use original area so load is constant in large deformation
keyop,2,11,2               ! Use real and not project area
esel,all

*DIM,_loadvari28x,TABLE,2,1,1,TIME,
! Time values
_loadvari28x(1,0,1) = 0.
_loadvari28x(2,0,1) = 1.
! Load values
_loadvari28x(1,1,1) = 0.
_loadvari28x(2,1,1) = 0.


*DIM,_loadvari28y,TABLE,2,1,1,TIME,
! Time values
_loadvari28y(1,0,1) = 0.
_loadvari28y(2,0,1) = 1.
! Load values
_loadvari28y(1,1,1) = 0.
_loadvari28y(2,1,1) = 0.


*DIM,_loadvari28z,TABLE,2,1,1,TIME,
! Time values
_loadvari28z(1,0,1) = 0.
_loadvari28z(2,0,1) = 1.
! Load values
_loadvari28z(1,1,1) = 0.
_loadvari28z(2,1,1) = -0.600961538461357

/gst,on,on
fini
*get,_numnode,node,0,count
*get,_numelem,elem,0,count
*get, _MAXELEMNUM, elem, 0, NUM, MAX
*get, _MAXNODENUM, node, 0, NUM, MAX
*get, _MAXELEMTYPE, etyp, 0, NUM, MAX
*get, _MAXREALCONST, real, 0, NUM, MAX
/go
/wb,load,end               !  done creating loads
/com,--- Number of total nodes = %_numnode%
/com,--- Number of contact elements = 84
/com,--- Number of spring elements = 0
/com,--- Number of bearing elements = 0
/com,--- Number of solid elements = 827
/com,--- Number of condensed parts = 0
/com,--- Number of total elements = %_numelem%
*get,_wallbsol,active,,time,wall
/com,****************************************************************************
/com,*************************    SOLUTION       ********************************
/com,****************************************************************************
/solu
antype,0                   ! static analysis
eqsl,sparse,,,,,1
cntr,print,1               ! print out contact info and also make no initial contact an error
dmpoption,emat,no             ! Don't combine emat file for DANSYS
dmpoption,esav,no             ! Don't combine esav file for DANSYS
nldiag,cont,iter           ! print out contact info each equilibrium iteration
rescontrol,,none                 ! Do not keep any restart files
/com,****************************************************
/com,******************* SOLVE FOR LS 1 OF 1 ****************
esel,s,type,,2
nsle
sfe,all,1,pres,1,%_loadvari28x%
sfe,all,2,pres,1,%_loadvari28y%
sfe,all,3,pres,1,%_loadvari28z%
nsel,all
esel,all
/nopr
/gopr
nsub,1,1,1
time,1.
outres,erase
outres,all,none
outres,nsol,all,
outres,rsol,all
outres,strs,all,
outres,epel,all,
outres,eppl,all,
stabilize,off                   ! Stabilization turned OFF by user
! *********** WB SOLVE COMMAND ***********
! check interactive state
*get,ANSINTER_,active,,int
*if,ANSINTER_,ne,0,then
/eof
*endif
solve
/com *************** Write FE CONNECTORS ********* 
CEWRITE,file,ce,,INTE
/com,****************************************************
/com,*************** FINISHED SOLVE FOR LS 1 *************
*get,_wallasol,active,,time,wall
/nopr
*get,_numnode,node,0,count
*get,_numelem,elem,0,count
*get, _MAXELEMNUM, elem, 0, NUM, MAX
*get, _MAXNODENUM, node, 0, NUM, MAX,,,INTERNAL
*get, _MAXELEMTYPE, etyp, 0, NUM, MAX
*get, _MAXREALCONST, real, 0, NUM, MAX
/gopr
/post1
xmlo,ENCODING,ISO-8859-1
xmlo,parm
/xml,parm,xml
fini
/gopr
*get,_walldone,active,,time,wall
_preptime=(_wallbsol-_wallstrt)*3600
_solvtime=(_wallasol-_wallbsol)*3600
_posttime=(_walldone-_wallasol)*3600
_totaltim=(_walldone-_wallstrt)*3600
/wb,file,end               ! done with WB generated input
