/batch
/config,noeldb,1     ! force off writing results to database
*get,_wallstrt,active,,time,wall
! ANSYS input file written by Workbench version 19.0 RELEASE
! File used for geometry attach: C:\Users\JPassos\Desktop\Mestrado\Pesquisa\MFEA\Example_files\dp0\Geom\DM\Geom.scdoc
/title,Example--Static Structural (C5)
*DIM,_wb_ProjectScratch_dir,string,248
_wb_ProjectScratch_dir(1) = 'C:\Users\JPassos\Desktop\Mestrado\Pesquisa\MFEA\_ProjectScratch\Scr2E28\'
*DIM,_wb_SolverFiles_dir,string,248
_wb_SolverFiles_dir(1) = 'C:\Users\JPassos\Desktop\Mestrado\Pesquisa\MFEA\Example_files\dp0\SYS-1\MECH\'
*DIM,_wb_userfiles_dir,string,248
_wb_userfiles_dir(1) = 'C:\Users\JPassos\Desktop\Mestrado\Pesquisa\MFEA\Example_files\user_files\'
/com,--- Data in consistent NMM units. See Solving Units in the help system for more information.
/units,MPA
/nopr
/wb,file,start              !  signify a WB generated input file
/prep7
! Turn off shape checking because checks already performed inside WB mesher.
! See help system for more information.
SHPP,OFF,,NOWARN
/nolist
etcon,set             ! allow ANSYS to choose best KEYOP's for 180x elements
/com,*********** Nodes for the whole assembly ***********
nblock,3,,9922
(1i9,3e20.9e3)
        1    1.193115548E+002    2.500000000E+000   -1.234995262E+001
        2    1.123384476E+002    2.500000000E+000   -4.540440050E+000
        3    1.006358534E+002    2.500000000E+000   -1.347797424E+001
        4    1.013374640E+002    2.500000000E+000   -1.136292764E+001
        5    1.110752260E+002    2.500000000E+000   -1.246258271E+001
        6    1.095488392E+002    2.500000000E+000   -1.087078454E+001
        7    1.113120813E+002    2.500000000E+000   -2.259145826E+001
        8    1.120691528E+002    2.500000000E+000    1.182854254E+000
        9    1.192855841E+002    2.500000000E+000   -3.663521000E+001
       10    9.925225984E+001    2.500000000E+000   -1.508408023E+001
       11    1.026430586E+002    2.500000000E+000   -1.654651338E+001
       12    9.946340498E+001    2.500000000E+000   -1.305981183E+001
       13    9.764450198E+001    2.500000000E+000   -1.645104615E+001
       14    9.809304556E+001    2.500000000E+000   -1.393652455E+001
       15    9.957412617E+001    2.500000000E+000   -1.766972445E+001
       16    1.047186955E+002    2.500000000E+000   -1.473823998E+001
       17    1.032392349E+002    2.500000000E+000   -1.431640737E+001
       18    1.019299545E+002    2.500000000E+000   -1.395889467E+001
       19    9.946727324E+001    2.500000000E+000   -1.121965464E+001
       20    6.991645014E+001    2.500000000E+000   -1.567534612E+001
! ... 9001 like lines cut
/wb,elem,start            !  set before creation of elements
/com,*********** Elements for Body 1 "Geom\Solid" ***********
et,1,186
keyo,1,2,1          ! set full integration on SOLID186
eblock,19,solid,,1524
(19i9)
        1        1        1        1        0        0        0        0       20        0        1        1      673      311      428     1350      678     1040      923
     2527     3941     3939     2526     5327     5326     6058     6059     2528     5305     3942     4421
        1        1        1        1        0        0        0        0       20        0        2        1      428      311      673     1351     1778     1661     2023
     2526     3939     3941     2527     6754     7547     7549     6755     2529     4422     3943     5306
        1        1        1        1        0        0        0        0       20        0        3        1      428      314      313     1350      923     1037     1038
     2526     3954     3949     2525     6059     6057     6299     6300     2528     4421     3956     3952
        1        1        1        1        0        0        0        0       20        0        4        1      313      314      428     1351     1663     1664     1778
     2525     3949     3954     2526     6753     7553     7556     6754     2529     3953     3957     4422
        1        1        1        1        0        0        0        0       20        0        5        1      313      411      226     1350     1038      940     1125
     2525     3950     3588     2524     6300     6112     6113     6465     2528     3952     4351     3590
        1        1        1        1        0        0        0        0       20        0        6        1      226      411      313     1351     1576     1761     1663
     2524     3588     3950     2525     6752     7366     7554     6753     2529     3591     4352     3953
        1        1        1        1        0        0        0        0       20        0        7        1      226      669      673     1350     1125      682      678
     2524     3589     5295     2527     6465     5340     5324     5327     2528     3590     5296     5305
        1        1        1        1        0        0        0        0       20        0        8        1      673      669      226     1351     2023     2019     1576
     2527     5295     3589     2524     6755     8187     7367     6752     2529     5306     5297     3591
        1        1        1        1        0        0        0        0       20        0        9        2      145      429      674     1349     1206      922      677
     2530     3209     4424     2532     6572     6056     5319     5321     2533     3210     4425     5307
        1        1        1        1        0        0        0        0       20        0       10        2      674      429      145     1352     2024     1779     1495
     2532     4424     3209     2530     6758     7796     7149     6756     2534     5308     4426     3211
! ... 3029 like lines cut
!Material Id = {8690CA6D-B46E-4799-9F6E-EB29CF487406}
/wb,elem,end               !  done creating elements
/com,*********** Send User Defined Coordinate System(s) ***********
csys,0
toffst,273.15,  ! Temperature offset from absolute zero
/com,*********** Set Reference Temperature ***********
tref,22.
/wb,mat,start              !  starting to send materials
/com,*********** Send Materials ***********
Temperature = 'TEMP' ! Temperature
MP,DENS,1,2.77e-09,	! tonne mm^-3
MP,ALPX,1,2.3e-05,	! C^-1
MP,C,1,875000000,	! mm^2 s^-2 C^-1
MPTEMP,,,,,,,,
MPTEMP,1,-100
MPTEMP,2,0
MPTEMP,3,100
MPTEMP,4,200
MPDATA,KXX,1, ,114,144,165,175,	! tonne mm s^-3 C^-1
MPTEMP,,,,,,,,
MPTEMP,,,,,,,,
MPTEMP,1,0
MPTEMP,2,20
MPTEMP,3,100
MPDATA,RSVX,1, ,2.43e-05,2.67e-05,3.63e-05,	! ohm mm
MPTEMP,,,,,,,,
MP,EX,1,71000,	! tonne s^-2 mm^-1
MP,NUXY,1,0.33,
MP,MURX,1,1,

/wb,mat,end                !  done sending materials
!************************* Model Summary ********************
!Geom\Solid,	Aluminum Alloy,	matid,	1
!************************* End Model Summary ********************
! get the diagonal of the bounding box. Needed later for other things
*get,_xmin,node,,mnloc,x
*get,_ymin,node,,mnloc,y
*get,_zmin,node,,mnloc,z
*get,_xmax,node,,mxloc,x
*get,_ymax,node,,mxloc,y
*get,_zmax,node,,mxloc,z
_ASMDIAG=(_xmax-_xmin)*(_xmax-_xmin)+(_ymax-_ymin)*(_ymax-_ymin)+(_zmax-_zmin)*(_zmax-_zmin)
_ASMDIAG=SQRT(_ASMDIAG)
/wb,contact,start          !  starting to send contact
/wb,contact,end            !  done creating contacts
/golist
/wb,load,start             !  starting to send loads
/com,*********** Fixed Supports ***********
CMBLOCK,_FIXEDSU,NODE,      144
(8i10)
      2043      2044      2045      2046      2047      2048      2049      2050
      2051      2052      2053      2054      2055      2056      2057      2058
      2059      2060      2454      2455      2456      2457      2458      2459
      2460      2461      2462      2463      2464      2465      2466      2467
      2468      2469      2470      2471      2472      2473      2474      2475
      2476      2477      2478      2479      2480      2481      2482      2483
      2484      2485      2486      2487      2488      2489      8225      8226
      8227      8228      8229      8230      8231      8232      8233      8234
      8235      8236      8237      8238      8239      8240      8241      8242
      8243      8244      8245      8246      8247      8248      8249      8250
      8251      8252      8253      8254      8255      8256      8257      8258
      8259      8260      8916      8917      8918      8919      8920      8921
      8922      8923      8924      8925      8926      8927      8928      8929
      8930      8931      8932      8933      8934      8935      8936      8937
      8938      8939      8940      8941      8942      8943      8944      8945
      8946      8947      8948      8949      8950      8951      8952      8953
      8954      8955      8956      8957      8958      8959      8960      8961
      8962      8963      8964      8965      8966      8967      8968      8969

cmsel,s,_FIXEDSU
d,all,all
nsel,all
/com,*********** Create Bearing Load ***********
et,2,154
eblock,10,,,34
(15i9)
     1525        2        2        2        0     2490     2508     2507     2506     8972     9005     9003     8971
     1526        2        2        2        0     2026     2041     2508     2490     8192     8223     8972     8193
     1527        2        2        2        0     2490     2491     2027     2026     8970     8195     8191     8193
     1528        2        2        2        0     2506     2509     2491     2490     9004     8974     8970     8971
     1529        2        2        2        0     2491     2492     2028     2027     8973     8197     8194     8195
     1530        2        2        2        0     2509     2510     2492     2491     9007     8976     8973     8974
     1531        2        2        2        0     2492     2493     2029     2028     8975     8199     8196     8197
     1532        2        2        2        0     2510     2511     2493     2492     9008     8978     8975     8976
     1533        2        2        2        0     2493     2494     2030     2029     8977     8201     8198     8199
     1534        2        2        2        0     2511     2512     2494     2493     9009     8980     8977     8978
     1535        2        2        2        0     2494     2495     2031     2030     8979     8203     8200     8201
     1536        2        2        2        0     2512     2513     2495     2494     9010     8982     8979     8980
     1537        2        2        2        0     2495     2496     2032     2031     8981     8205     8202     8203
     1538        2        2        2        0     2513     2514     2496     2495     9011     8984     8981     8982
     1539        2        2        2        0     2496     2497     2033     2032     8983     8207     8204     8205
     1540        2        2        2        0     2514     2515     2497     2496     9012     8986     8983     8984
     1541        2        2        2        0     2497     2498     2034     2033     8985     8209     8206     8207
     1542        2        2        2        0     2515     2516     2498     2497     9013     8988     8985     8986
     1543        2        2        2        0     2498     2499     2035     2034     8987     8211     8208     8209
     1544        2        2        2        0     2516     2517     2499     2498     9014     8990     8987     8988
! ... 15 like lines cut
esel,s,type,,2
keyop,2,7,1                ! Use original area so load is constant in large deformation
esel,all
/gst,on,on
fini
*get,_numnode,node,0,count
*get,_numelem,elem,0,count
*get, _MAXELEMNUM, elem, 0, NUM, MAX
*get, _MAXNODENUM, node, 0, NUM, MAX
*get, _MAXELEMTYPE, etyp, 0, NUM, MAX
*get, _MAXREALCONST, real, 0, NUM, MAX
/go
/wb,load,end               !  done creating loads
/com,--- Number of total nodes = %_numnode%
/com,--- Number of contact elements = 34
/com,--- Number of spring elements = 0
/com,--- Number of bearing elements = 0
/com,--- Number of solid elements = 1524
/com,--- Number of condensed parts = 0
/com,--- Number of total elements = %_numelem%
*get,_wallbsol,active,,time,wall
/com,****************************************************************************
/com,*************************    SOLUTION       ********************************
/com,****************************************************************************
/solu
antype,0                   ! static analysis
eqsl,sparse,,,,,1
cntr,print,1               ! print out contact info and also make no initial contact an error
dmpoption,emat,no             ! Don't combine emat file for DANSYS
dmpoption,esav,no             ! Don't combine esav file for DANSYS
nldiag,cont,iter           ! print out contact info each equilibrium iteration
rescontrol,,none                 ! Do not keep any restart files
/com,****************************************************
/com,******************* SOLVE FOR LS 1 OF 1 ****************
esel,s,type,,2
sfe,all,5,pres,0,0.0,1.,0.,0.
local,11,0,0,0,0,90.,0.,-90.
csys,0
*set,_v1,0.
*set,_v2,0.
*set,_v3,1.
*get,_necurr,elem,,count
_ecurr=0
_total=0
*do,_i,1,_necurr
  _ecurr = ELNEXT(_ecurr)
  _normx = NORMNX(NELEM(_ecurr,1),NELEM(_ecurr,2),NELEM(_ecurr,3))
  _normy = NORMNY(NELEM(_ecurr,1),NELEM(_ecurr,2),NELEM(_ecurr,3))
  _normz = NORMNZ(NELEM(_ecurr,1),NELEM(_ecurr,2),NELEM(_ecurr,3))
  _normmag = sqrt(_normx*_normx + _normy*_normy + _normz*_normz )
  _normx = _normx/_normmag
  _normy = _normy/_normmag
  _normz = _normz/_normmag
  _dot = _normx*_v1+_normy*_v2+_normz*_v3
  *if,_dot,gt,-.00001,then
    esel,u,elem,,_ecurr
  *else
    csys,11
    *get,_indd,elem,_ecurr,aproj,x
    csys,0
    _total=_total+_indd
  *endif
*enddo
*get,_necurr,elem,,count
*if,_necurr,eq,0,then
  *msg,error
  NO ELEMENTS ARE SELECTED TO APPLY BEARING LOAD TO. & 
  IT IS LIKELY THAT THE BEARING LOAD IS IN THE WRONG DIRECTION
*endif
*set,_mag,800.
_mag=_mag/_total     
sfe,all,5,pres,0,_mag,0.,0.,800.
nsel,all
esel,all
/nopr
/gopr
nsub,1,1,1
time,1.
outres,erase
outres,all,none
outres,nsol,all
outres,rsol,all
outres,strs,all
outres,epel,all
outres,eppl,all
stabilize,off                   ! Stabilization turned OFF by user
! *********** WB SOLVE COMMAND ***********
! check interactive state
*get,ANSINTER_,active,,int
*if,ANSINTER_,ne,0,then
/eof
*endif
solve
/com *************** Write FE CONNECTORS ********* 
CEWRITE,file,ce,,INTE
/com,****************************************************
/com,*************** FINISHED SOLVE FOR LS 1 *************
*get,_wallasol,active,,time,wall
/nopr
*get,_numnode,node,0,count
*get,_numelem,elem,0,count
*get, _MAXELEMNUM, elem, 0, NUM, MAX
*get, _MAXNODENUM, node, 0, NUM, MAX,,,INTERNAL
*get, _MAXELEMTYPE, etyp, 0, NUM, MAX
*get, _MAXREALCONST, real, 0, NUM, MAX
/gopr
/post1
xmlo,ENCODING,ISO-8859-1
xmlo,parm
/xml,parm,xml
fini
/gopr
*get,_walldone,active,,time,wall
_preptime=(_wallbsol-_wallstrt)*3600
_solvtime=(_wallasol-_wallbsol)*3600
_posttime=(_walldone-_wallasol)*3600
_totaltim=(_walldone-_wallstrt)*3600
/wb,file,end               ! done with WB generated input
