/batch
/config,noeldb,1     ! force off writing results to database
*get,_wallstrt,active,,time,wall
! ANSYS input file written by Workbench version 19.1 RELEASE
! File used for geometry attach: C:\Users\JPassos\Desktop\Simulations\aluminium-profile\simulation_files\dp0\SYS\DM\SYS.scdoc
/title,simulation--Static Structural (A5)
*DIM,_wb_ProjectScratch_dir,string,248
_wb_ProjectScratch_dir(1) = 'C:\Users\JPassos\Desktop\Simulations\aluminium-profile\_ProjectScratch\Scr3ACE\'
*DIM,_wb_SolverFiles_dir,string,248
_wb_SolverFiles_dir(1) = 'C:\Users\JPassos\Desktop\Simulations\aluminium-profile\simulation_files\dp0\SYS\MECH\'
*DIM,_wb_userfiles_dir,string,248
_wb_userfiles_dir(1) = 'C:\Users\JPassos\Desktop\Simulations\aluminium-profile\simulation_files\user_files\'
/com,--- Data in consistent CGS units. See Solving Units in the help system for more information.
/units,CGS
/nopr
/wb,file,start              !  signify a WB generated input file
/prep7
! Turn off shape checking because checks already performed inside WB mesher.
! See help system for more information.
SHPP,OFF,,NOWARN
/nolist
etcon,set             ! allow ANSYS to choose best KEYOP's for 180x elements
/com,*********** Nodes for the whole assembly ***********
nblock,3,,3840
(1i9,3e20.9e3)
        1     3.163879320E+00     2.914829684E+00    -2.608842105E+00
        2     3.163879320E+00     2.914829684E+00    -2.345684211E+00
        3     3.163879320E+00     2.914829684E+00    -2.082526316E+00
        4     3.163879320E+00     2.914829684E+00    -1.819368421E+00
        5     3.163879320E+00     2.914829684E+00    -1.556210526E+00
        6     3.163879320E+00     2.914829684E+00    -1.293052632E+00
        7     3.163879320E+00     2.914829684E+00    -1.029894737E+00
        8     3.163879320E+00     2.914829684E+00    -7.667368421E-01
        9     3.163879320E+00     2.914829684E+00    -5.035789474E-01
       10     3.163879320E+00     2.914829684E+00    -2.404210526E-01
       11     3.163879320E+00     2.914829684E+00     2.273684211E-02
       12     3.163879320E+00     2.914829684E+00     2.858947368E-01
       13     3.163879320E+00     2.914829684E+00     5.490526316E-01
       14     3.163879320E+00     2.914829684E+00     8.122105263E-01
       15     3.163879320E+00     2.914829684E+00     1.075368421E+00
       16     3.163879320E+00     2.914829684E+00     1.338526316E+00
       17     3.163879320E+00     2.914829684E+00     1.601684211E+00
       18     3.163879320E+00     2.914829684E+00     1.864842105E+00
       19     3.453893590E+00     3.748272807E+00    -2.608842105E+00
       20     3.453893590E+00     3.748272807E+00    -2.345684211E+00
! ... 3472 like lines cut
/wb,elem,start            !  set before creation of elements
/com,*********** Elements for Body 1 "SYS\Solid1" ***********
et,1,186
keyo,1,2,1          ! set full integration on SOLID186
eblock,19,solid,,589
(19i9)
        1        1        1        1        0        0        0        0       20        0        1        1      941      235       91      285      942      272      280
      985     1934     1365      982     2101     2066     2063     2089      983     3434     1931     1366
        1        1        1        1        0        0        0        0       20        0        2        1       91      235      941        2       92      236      940
      982     1365     1934      985      987     1370     1939      989      981     1364     1930     3432
        1        1        1        1        0        0        0        0       20        0        3        2       92      236      940        3       93      237      939
      987     1370     1939      989      991     1374     1944      993      986     1369     1936     3430
        1        1        1        1        0        0        0        0       20        0        4        3       93      237      939        4       94      238      938
      991     1374     1944      993      995     1378     1949      997      990     1373     1941     3428
        1        1        1        1        0        0        0        0       20        0        5        4       94      238      938        5       95      239      937
      995     1378     1949      997      999     1382     1954     1001      994     1377     1946     3426
        1        1        1        1        0        0        0        0       20        0        6        5       95      239      937        6       96      240      936
      999     1382     1954     1001     1003     1386     1959     1005      998     1381     1951     3424
        1        1        1        1        0        0        0        0       20        0        7        6       96      240      936        7       97      241      935
     1003     1386     1959     1005     1007     1390     1964     1009     1002     1385     1956     3422
        1        1        1        1        0        0        0        0       20        0        8        7       97      241      935        8       98      242      934
     1007     1390     1964     1009     1011     1394     1969     1013     1006     1389     1961     3420
        1        1        1        1        0        0        0        0       20        0        9        8       98      242      934        9       99      243      933
     1011     1394     1969     1013     1015     1398     1974     1017     1010     1393     1966     3418
        1        1        1        1        0        0        0        0       20        0       10        9       99      243      933       10      100      244      932
     1015     1398     1974     1017     1019     1402     1979     1021     1014     1397     1971     3416
! ... 1159 like lines cut
!Material Id = {35FC9F52-A674-45ED-8E9A-3D659FAC96DF}
/wb,elem,end               !  done creating elements
/com,*********** Send User Defined Coordinate System(s) ***********
csys,0
toffst,273.15,  ! Temperature offset from absolute zero
/com,*********** Set Reference Temperature ***********
tref,22.
/wb,mat,start              !  starting to send materials
/com,*********** Send Materials ***********
Temperature = 'TEMP' ! Temperature
MP,DENS,1,2.77,	! g cm^-3
MP,ALPX,1,2.3e-05,	! C^-1
MP,C,1,8750000,	! dyne cm g^-1 C^-1
MPTEMP,,,,,,,,
MPTEMP,1,-100
MPTEMP,2,0
MPTEMP,3,100
MPTEMP,4,200
MPDATA,KXX,1, ,11400000,14400000,16500000,17500000,	! dyne s^-1 C^-1
MPTEMP,,,,,,,,
MPTEMP,,,,,,,,
MPTEMP,1,0
MPTEMP,2,20
MPTEMP,3,100
MPDATA,RSVX,1, ,2.43e-06,2.67e-06,3.63e-06,	! ohm cm
MPTEMP,,,,,,,,
MP,EX,1,710000000000,	! dyne cm^-2
MP,NUXY,1,0.33,
MP,MURX,1,1,

/wb,mat,end                !  done sending materials
!************************* Model Summary ********************
!SYS\Solid1,	Aluminum Alloy,	matid,	1
!************************* End Model Summary ********************
! get the diagonal of the bounding box. Needed later for other things
*get,_xmin,node,,mnloc,x
*get,_ymin,node,,mnloc,y
*get,_zmin,node,,mnloc,z
*get,_xmax,node,,mxloc,x
*get,_ymax,node,,mxloc,y
*get,_zmax,node,,mxloc,z
_ASMDIAG=(_xmax-_xmin)*(_xmax-_xmin)+(_ymax-_ymin)*(_ymax-_ymin)+(_zmax-_zmin)*(_zmax-_zmin)
_ASMDIAG=SQRT(_ASMDIAG)
/wb,contact,start          !  starting to send contact
/wb,contact,end            !  done creating contacts
/golist
/wb,load,start             !  starting to send loads
/com,*********** Fixed Supports ***********
CMBLOCK,_FIXEDSU,NODE,      128
(8i10)
       286       287       288       289       290       291       292       293
       294       295       296       297       298       299       300       301
       302       303       304       305       306       307       308       309
       310       311       312       313       314       315       316       317
       318       319       320       321       322       323       324       325
       326       327       328       329       330       331       332       333
       334      2102      2103      2104      2105      2106      2107      2108
      2109      2110      2111      2112      2113      2114      2115      2116
      2117      2118      2119      2120      2121      2122      2123      2124
      2125      2126      2127      2128      2129      2130      2131      2132
      2133      2134      2135      2136      2137      2138      2139      2140
      2141      2142      2143      2144      2145      2146      2147      2149
      2150      2153      2154      2156      2157      2159      2160      2162
      2164      2166      2167      2169      2172      2173      2176      2177
      2179      2181      2184      2186      2188      2191      2193      2195
      2197      2199      2200      2202      2205      2207      2210      2212

cmsel,s,_FIXEDSU
d,all,all
nsel,all
/com,********* Frictionless Supports X *********
CMBLOCK,_FRICSUX,NODE,      152
(8i10)
       335       336       337       338       339       340       341       342
       343       344       345       346       347       348       349       350
       351       352       353       354       355       356       357       358
       359       360       361       362       363       364       365       366
       367       368       369       370       371       372       373       374
       375       376       377       378       379       380       381       382
       383       384       385       386       387       388       389       390
       391      2211      2213      2214      2215      2216      2217      2218
      2219      2220      2221      2222      2223      2224      2225      2226
      2227      2228      2229      2230      2231      2232      2233      2234
      2235      2236      2237      2238      2239      2240      2241      2242
      2243      2244      2245      2246      2247      2248      2249      2250
      2251      2252      2253      2254      2255      2256      2257      2258
      2259      2260      2261      2262      2263      2264      2265      2266
      2267      2268      2269      2270      2271      2273      2275      2277
      2279      2281      2283      2285      2287      2289      2291      2293
      2295      2297      2299      2301      2303      2305      2308      2310
      2312      2314      2316      2318      2320      2322      2324      2326
      2328      2330      2332      2334      2336      2338      2340      2342

cmsel,s,_FRICSUX
d,all,ux,0
nsel,all
/com,********* Frictionless Supports Y *********
CMBLOCK,_FRICSUY,NODE,      152
(8i10)
       753       754       755       756       757       758       759       760
       761       762       763       764       765       766       767       768
       769       770       771       924       925       926       927       928
       929       930       931       932       933       934       935       936
       937       938       939       940       941       942       943       944
       945       946       947       948       949       950       951       952
       953       954       955       956       957       958       959       960
       961      2151      2152      2175      3124      3125      3126      3127
      3128      3129      3130      3131      3132      3133      3134      3135
      3136      3137      3138      3139      3140      3141      3142      3143
      3144      3145      3146      3147      3148      3149      3150      3151
      3152      3153      3154      3155      3156      3157      3158      3159
      3160      3400      3401      3402      3403      3404      3405      3406
      3407      3408      3409      3410      3411      3412      3413      3414
      3415      3416      3417      3418      3419      3420      3421      3422
      3423      3424      3425      3426      3427      3428      3429      3430
      3431      3432      3433      3434      3435      3436      3437      3439
      3441      3443      3445      3447      3449      3451      3453      3455
      3457      3459      3461      3463      3465      3467      3469      3471

cmsel,s,_FRICSUY
d,all,uy,0
nsel,all
/com,*********** Define Force Using Surface Effect Elements ***********
local,12,0,0.,0.,0.,0.,0.,0.
csys,0
et,2,154
eblock,10,,,31
(15i9)
      590        2        2        2       12      942      272      280      285     2066     2063     2089     2101
      591        2        2        2       12      752      285      280      733     2100     2089     2091     3086
      592        2        2        2       12      942      285      752      753     2101     2100     3123     3125
      593        2        2        2       12      275      284      283      271     2078     2097     2061     2058
      594        2        2        2       12      279      278      271      283     2084     2060     2061     2086
      595        2        2        2       12      277      273      284      275     2068     2069     2078     2077
      596        2        2        2       12      560      561      284      273     2694     2099     2069     2070
      597        2        2        2       12      561      562      283      284     2696     2098     2097     2099
      598        2        2        2       12      562      412      279      283     2404     2087     2086     2098
      599        2        2        2       12      276      657      275      271     2081     2079     2058     2059
      600        2        2        2       12      696      619      657      276     2845     2844     2081     2082
      601        2        2        2       12      696      694      282      619     3011     2096     2095     2845
      602        2        2        2       12      281      618      619      282     2093     2842     2095     2092
      603        2        2        2       12      694      695      281      282     3010     2094     2092     2096
      604        2        2        2       12      280      638      618      281     2090     2843     2093     2088
      605        2        2        2       12      695      733      280      281     3012     2091     2088     2094
      606        2        2        2       12      272      923      638      280     2065     2882     2090     2063
      607        2        2        2       12      353      373      923      272     2270     2309     2065     2064
      608        2        2        2       12      943      980      272      942     3438     2067     2066     3436
      609        2        2        2       12      980      354      353      272     2272     2269     2064     2067
! ... 12 like lines cut
esel,s,type,,2
keyop,2,2,1                ! Apply load in local coordinate system
keyop,2,7,1                ! Use original area so load is constant in large deformation
keyop,2,11,2               ! Use real and not project area
esel,all

*DIM,_loadvari80x,TABLE,2,1,1,TIME,
! Time values
_loadvari80x(1,0,1) = 0.
_loadvari80x(2,0,1) = 1.
! Load values
_loadvari80x(1,1,1) = 0.
_loadvari80x(2,1,1) = 0.


*DIM,_loadvari80y,TABLE,2,1,1,TIME,
! Time values
_loadvari80y(1,0,1) = 0.
_loadvari80y(2,0,1) = 1.
! Load values
_loadvari80y(1,1,1) = 0.
_loadvari80y(2,1,1) = 0.


*DIM,_loadvari80z,TABLE,2,1,1,TIME,
! Time values
_loadvari80z(1,0,1) = 0.
_loadvari80z(2,0,1) = 1.
! Load values
_loadvari80z(1,1,1) = 0.
_loadvari80z(2,1,1) = 132650591.505088

/gst,on,on
fini
*get,_numnode,node,0,count
*get,_numelem,elem,0,count
*get, _MAXELEMNUM, elem, 0, NUM, MAX
*get, _MAXNODENUM, node, 0, NUM, MAX
*get, _MAXELEMTYPE, etyp, 0, NUM, MAX
*get, _MAXREALCONST, real, 0, NUM, MAX
/go
/wb,load,end               !  done creating loads
/com,--- Number of total nodes = %_numnode%
/com,--- Number of contact elements = 31
/com,--- Number of spring elements = 0
/com,--- Number of bearing elements = 0
/com,--- Number of solid elements = 589
/com,--- Number of condensed parts = 0
/com,--- Number of total elements = %_numelem%
*get,_wallbsol,active,,time,wall
/com,****************************************************************************
/com,*************************    SOLUTION       ********************************
/com,****************************************************************************
/solu
antype,0                   ! static analysis
eqsl,pcg,1e-8,,,,,,1
cntr,print,1               ! print out contact info and also make no initial contact an error
dmpoption,emat,no             ! Don't combine emat file for DANSYS
dmpoption,esav,no             ! Don't combine esav file for DANSYS
nldiag,cont,iter           ! print out contact info each equilibrium iteration
rescontrol,,none                 ! Do not keep any restart files
/com,****************************************************
/com,******************* SOLVE FOR LS 1 OF 1 ****************
esel,s,type,,2
nsle
sfe,all,1,pres,1,%_loadvari80x%
sfe,all,2,pres,1,%_loadvari80y%
sfe,all,3,pres,1,%_loadvari80z%
nsel,all
esel,all
/nopr
/gopr
nsub,1,1,1
time,1.
outres,erase
outres,all,none
outres,nsol,all,
outres,rsol,all
outres,strs,all,
outres,epel,all,
outres,eppl,all,
stabilize,off                   ! Stabilization turned OFF by user
! *********** WB SOLVE COMMAND ***********
! check interactive state
*get,ANSINTER_,active,,int
*if,ANSINTER_,ne,0,then
/eof
*endif
solve
/com *************** Write FE CONNECTORS ********* 
CEWRITE,file,ce,,INTE
/com,****************************************************
/com,*************** FINISHED SOLVE FOR LS 1 *************
*get,_wallasol,active,,time,wall
/nopr
*get,_numnode,node,0,count
*get,_numelem,elem,0,count
*get, _MAXELEMNUM, elem, 0, NUM, MAX
*get, _MAXNODENUM, node, 0, NUM, MAX,,,INTERNAL
*get, _MAXELEMTYPE, etyp, 0, NUM, MAX
*get, _MAXREALCONST, real, 0, NUM, MAX
/gopr
*get,_PCGITER,active,,solu,cgiter
/post1
xmlo,ENCODING,ISO-8859-1
xmlo,parm
/xml,parm,xml
fini
/gopr
*get,_walldone,active,,time,wall
_preptime=(_wallbsol-_wallstrt)*3600
_solvtime=(_wallasol-_wallbsol)*3600
_posttime=(_walldone-_wallasol)*3600
_totaltim=(_walldone-_wallstrt)*3600
/wb,file,end               ! done with WB generated input
