/batch
/config,noeldb,1     ! force off writing results to database
*get,_wallstrt,active,,time,wall
! ANSYS input file written by Workbench version 19.1 RELEASE
! File used for geometry attach: C:\Users\Yuji\Desktop\MATLAB\ansys\Example\Example_files\dp0\SYS-1\DM\SYS-1.scdoc
/title,Example--Static Structural (A5)
*DIM,_wb_ProjectScratch_dir,string,248
_wb_ProjectScratch_dir(1) = 'C:\Users\Yuji\Desktop\MATLAB\ansys\Example\_ProjectScratch\ScrC409\'
*DIM,_wb_SolverFiles_dir,string,248
_wb_SolverFiles_dir(1) = 'C:\Users\Yuji\Desktop\MATLAB\ansys\Example\Example_files\dp0\SYS-1\MECH\'
*DIM,_wb_userfiles_dir,string,248
_wb_userfiles_dir(1) = 'C:\Users\Yuji\Desktop\MATLAB\ansys\Example\Example_files\user_files\'
/com,--- Data in consistent NMM units. See Solving Units in the help system for more information.
/units,MPA
/nopr
/wb,file,start              !  signify a WB generated input file
/prep7
! Turn off shape checking because checks already performed inside WB mesher.
! See help system for more information.
SHPP,OFF,,NOWARN
/nolist
etcon,set             ! allow ANSYS to choose best KEYOP's for 180x elements
/com,*********** Nodes for the whole assembly ***********
nblock,3,,29760
(1i9,3e20.9e3)
        1     1.128434097E+02     1.000000000E+00    -2.892124940E+01
        2     1.128434097E+02     2.000000000E+00    -2.892124940E+01
        3     5.044293358E+01     1.000000000E+00    -1.806487552E+01
        4     5.044293358E+01     2.000000000E+00    -1.806487552E+01
        5     5.082994466E+01     1.000000000E+00    -1.717099171E+01
        6     5.082994466E+01     2.000000000E+00    -1.717099171E+01
        7     5.031470636E+01     1.000000000E+00    -2.057527877E+01
        8     5.031470636E+01     2.000000000E+00    -2.057527877E+01
        9     5.079193446E+01     1.000000000E+00    -1.978823529E+01
       10     5.079193446E+01     2.000000000E+00    -1.978823529E+01
       11     6.452260924E+01     1.000000000E+00    -3.927953820E+00
       12     6.452260924E+01     2.000000000E+00    -3.927953820E+00
       13     6.535677724E+01     1.000000000E+00    -4.452949672E+00
       14     6.535677724E+01     2.000000000E+00    -4.452949672E+00
       15     1.087214082E+02     1.000000000E+00    -1.481419330E+01
       16     1.087214082E+02     2.000000000E+00    -1.481419330E+01
       17     1.127734592E+02     1.000000000E+00    -1.245592400E+01
       18     1.127734592E+02     2.000000000E+00    -1.245592400E+01
       19     1.211332393E+02     1.000000000E+00    -2.270134770E+01
       20     1.211332393E+02     2.000000000E+00    -2.270134770E+01
! ... 27036 like lines cut
/wb,elem,start            !  set before creation of elements
/com,*********** Elements for Body 1 "SYS-1\S_lido" ***********
et,1,186
keyo,1,2,1          ! set full integration on SOLID186
eblock,19,solid,,5097
(19i9)
        1        1        1        1        0        0        0        0       20        0        1      543     3039      853      815     4376     3128     4221     4240
     9483    10663    10507     9482    18625    18623    21065    21092     9484    18411    10664    10510
        1        1        1        1        0        0        0        0       20        0        2      543      815      853     3039      544      816      854     3040
     9482    10507    10663     9483     9486    10511    10666     9487     9480    10506    10661    18410
        1        1        1        1        0        0        0        0       20        0        3      544      816      854     3040     4919     5055     5074     6167
     9486    10511    10666     9487    22414    22722    22772    22415     9488    10514    10667    18412
        1        1        1        1        0        0        0        0       20        0        4      533      815     2087     2089     4381     4240     3604     3603
     9443    10509    15507     9444    21093    20067    20063    20065     9445    10510    15508    15515
        1        1        1        1        0        0        0        0       20        0        5      533     2089     2087      815      534     2090     2088      816
     9444    15507    10509     9443     9448    15510    10513     9447     9441    15513    15506    10506
        1        1        1        1        0        0        0        0       20        0        6      534     2090     2088      816     4914     5692     5691     5055
     9448    15510    10513     9447    22403    24268    22724    22402     9449    15518    15511    10514
        1        1        1        1        0        0        0        0       20        0        7      529      543      815      533     4383     4376     4240     4381
     9427     9482     9443     9426    21329    21092    21093    21337     9428     9484    10510     9445
        1        1        1        1        0        0        0        0       20        0        8      529      533      815      543      530      534      816      544
     9426     9443     9482     9427     9429     9447     9486     9430     9425     9441    10506     9480
        1        1        1        1        0        0        0        0       20        0        9      530      534      816      544     4912     4914     5055     4919
     9429     9447     9486     9430    22396    22402    22414    22397     9431     9449    10514     9488
        1        1        1        1        0        0        0        0       20        0       10        1     2087      815     1063     4647     3604     4240     4116
     7368    10509    10508     7366    20068    20067    20944    20945     7369    15508    10510    11587
! ... 10175 like lines cut
!Material Id = {0762C2BB-D601-42A9-B740-9FB19475183E}
/wb,elem,end               !  done creating elements
/com,*********** Send User Defined Coordinate System(s) ***********
csys,0
toffst,273.15,  ! Temperature offset from absolute zero
/com,*********** Set Reference Temperature ***********
tref,22.
/wb,mat,start              !  starting to send materials
/com,*********** Send Materials ***********
Temperature = 'TEMP' ! Temperature
MP,DENS,1,2.77e-09,	! tonne mm^-3
MP,ALPX,1,2.3e-05,	! C^-1
MP,C,1,875000000,	! mm^2 s^-2 C^-1
MPTEMP,,,,,,,,
MPTEMP,1,-100
MPTEMP,2,0
MPTEMP,3,100
MPTEMP,4,200
MPDATA,KXX,1, ,114,144,165,175,	! tonne mm s^-3 C^-1
MPTEMP,,,,,,,,
MPTEMP,,,,,,,,
MPTEMP,1,0
MPTEMP,2,20
MPTEMP,3,100
MPDATA,RSVX,1, ,2.43e-05,2.67e-05,3.63e-05,	! ohm mm
MPTEMP,,,,,,,,
MP,EX,1,71000,	! tonne s^-2 mm^-1
MP,NUXY,1,0.33,
MP,MURX,1,1,

/wb,mat,end                !  done sending materials
!************************* Model Summary ********************
!SYS-1\S_lido,	Aluminum Alloy,	matid,	1
!************************* End Model Summary ********************
! get the diagonal of the bounding box. Needed later for other things
*get,_xmin,node,,mnloc,x
*get,_ymin,node,,mnloc,y
*get,_zmin,node,,mnloc,z
*get,_xmax,node,,mxloc,x
*get,_ymax,node,,mxloc,y
*get,_zmax,node,,mxloc,z
_ASMDIAG=(_xmax-_xmin)*(_xmax-_xmin)+(_ymax-_ymin)*(_ymax-_ymin)+(_zmax-_zmin)*(_zmax-_zmin)
_ASMDIAG=SQRT(_ASMDIAG)
/wb,contact,start          !  starting to send contact
/wb,contact,end            !  done creating contacts
/com,*********** Send Named Selection as Node Component ***********
CMBLOCK,BEARINGHOLE,NODE,      770
(8i10)
      6197      6198      6199      6200      6201      6202      6203      6204
      6205      6206      6207      6208      6209      6210      6211      6212
      6213      6214      6215      6216      6217      6218      6219      6220
      6221      6222      6223      6224      6225      6226      6227      6228
      6229      6230      6231      6232      6233      6234      6235      6236
      6237      6238      6239      6240      6241      6242      6243      6244
      6245      6246      6247      6248      6249      6250      6251      6252
      6253      6254      6255      6256      6257      6258      6259      6260
      6261      6262      6263      6264      6265      6266      7155      7156
      7157      7158      7159      7160      7161      7162      7163      7164
      7165      7166      7167      7168      7169      7170      7171      7172
      7173      7174      7175      7176      7177      7178      7179      7180
      7181      7182      7183      7184      7185      7186      7187      7188
      7189      7190      7191      7192      7193      7194      7195      7196
      7197      7198      7199      7200      7201      7202      7203      7204
      7205      7206      7207      7208      7209      7210      7211      7212
      7213      7214      7215      7216      7217      7218      7219      7220
      7221      7222      7223      7224      7225      7226      7227      7228
      7229      7230      7231      7232      7233      7234      7235      7236
      7237      7238      7239      7240      7241      7242      7243      7244
! ... 77 like lines cut
/golist
/wb,load,start             !  starting to send loads
/com,*********** Fixed Supports ***********
CMBLOCK,_FIXEDSU,NODE,      286
(8i10)
      6267      6268      6269      6270      6271      6272      6273      6274
      6275      6276      6277      6278      6279      6280      6281      6282
      6283      6284      6285      6286      6287      6288      6289      6290
      6291      6292      7077      7078      7079      7080      7081      7082
      7083      7084      7085      7086      7087      7088      7089      7090
      7091      7092      7093      7094      7095      7096      7097      7098
      7099      7100      7101      7102      7103      7104      7105      7106
      7107      7108      7109      7110      7111      7112      7113      7114
      7115      7116      7117      7118      7119      7120      7121      7122
      7123      7124      7125      7126      7127      7128      7129      7130
      7131      7132      7133      7134      7135      7136      7137      7138
      7139      7140      7141      7142      7143      7144      7145      7146
      7147      7148      7149      7150      7151      7152      7153      7154
     25152     25153     25154     25155     25156     25157     25158     25159
     25160     25161     25162     25163     25164     25165     25166     25167
     25168     25169     25170     25171     25172     25173     25174     25175
     25176     25177     25178     25179     25180     25181     25182     25183
     25184     25185     25186     25187     25188     25189     25190     25191
     25192     25193     25194     25195     25196     25197     25198     25199
     25200     25201     25202     25203     26576     26577     26578     26579
! ... 16 like lines cut
cmsel,s,_FIXEDSU
d,all,all
nsel,all
/com,*********** Create Bearing Load ***********
et,2,154
eblock,10,,,210
(15i9)
     5098        2        2        2        0     7224     7294     6265     6197    26915    25150    25013    25014
     5099        2        2        2        0     7293     7296     7295     7155    26984    26987    26709    26708
     5100        2        2        2        0     7224     7155     7295     7294    26707    26709    26986    26915
     5101        2        2        2        0     7155     7156     7297     7293    26706    26712    26985    26708
     5102        2        2        2        0     7224     7225     7156     7155    26914    26711    26706    26707
     5103        2        2        2        0     6197     6198     7225     7224    25012    25016    26914    25014
     5104        2        2        2        0     7156     7157     7298     7297    26710    26715    26989    26712
     5105        2        2        2        0     7225     7226     7157     7156    26916    26714    26710    26711
     5106        2        2        2        0     6198     6199     7226     7225    25015    25018    26916    25016
     5107        2        2        2        0     7157     7158     7299     7298    26713    26718    26990    26715
     5108        2        2        2        0     7226     7227     7158     7157    26917    26717    26713    26714
     5109        2        2        2        0     6199     6200     7227     7226    25017    25020    26917    25018
     5110        2        2        2        0     7158     7159     7300     7299    26716    26721    26991    26718
     5111        2        2        2        0     7227     7228     7159     7158    26918    26720    26716    26717
     5112        2        2        2        0     6200     6201     7228     7227    25019    25022    26918    25020
     5113        2        2        2        0     7159     7160     7301     7300    26719    26724    26992    26721
     5114        2        2        2        0     7228     7229     7160     7159    26919    26723    26719    26720
     5115        2        2        2        0     6201     6202     7229     7228    25021    25024    26919    25022
     5116        2        2        2        0     7160     7161     7302     7301    26722    26727    26993    26724
     5117        2        2        2        0     7229     7230     7161     7160    26920    26726    26722    26723
! ... 191 like lines cut
esel,s,type,,2
keyop,2,7,1                ! Use original area so load is constant in large deformation
esel,all
/gst,on,on
fini
*get,_numnode,node,0,count
*get,_numelem,elem,0,count
*get, _MAXELEMNUM, elem, 0, NUM, MAX
*get, _MAXNODENUM, node, 0, NUM, MAX
*get, _MAXELEMTYPE, etyp, 0, NUM, MAX
*get, _MAXREALCONST, real, 0, NUM, MAX
/go
/wb,load,end               !  done creating loads
/com,--- Number of total nodes = %_numnode%
/com,--- Number of contact elements = 210
/com,--- Number of spring elements = 0
/com,--- Number of bearing elements = 0
/com,--- Number of solid elements = 5097
/com,--- Number of condensed parts = 0
/com,--- Number of total elements = %_numelem%
*get,_wallbsol,active,,time,wall
/com,****************************************************************************
/com,*************************    SOLUTION       ********************************
/com,****************************************************************************
/solu
antype,0                   ! static analysis
eqsl,pcg,1e-8,,,,,,1
cntr,print,1               ! print out contact info and also make no initial contact an error
dmpoption,emat,no             ! Don't combine emat file for DANSYS
dmpoption,esav,no             ! Don't combine esav file for DANSYS
nldiag,cont,iter           ! print out contact info each equilibrium iteration
rescontrol,,none                 ! Do not keep any restart files
/com,****************************************************
/com,******************* SOLVE FOR LS 1 OF 1 ****************
esel,s,type,,2
sfe,all,5,pres,0,0.0,1.,0.,0.
local,11,0,0,0,0,90.,0.,-90.
csys,0
*set,_v1,0.
*set,_v2,0.
*set,_v3,1.
*get,_necurr,elem,,count
_ecurr=0
_total=0
*do,_i,1,_necurr
  _ecurr = ELNEXT(_ecurr)
  _normx = NORMNX(NELEM(_ecurr,1),NELEM(_ecurr,2),NELEM(_ecurr,3))
  _normy = NORMNY(NELEM(_ecurr,1),NELEM(_ecurr,2),NELEM(_ecurr,3))
  _normz = NORMNZ(NELEM(_ecurr,1),NELEM(_ecurr,2),NELEM(_ecurr,3))
  _normmag = sqrt(_normx*_normx + _normy*_normy + _normz*_normz )
  _normx = _normx/_normmag
  _normy = _normy/_normmag
  _normz = _normz/_normmag
  _dot = _normx*_v1+_normy*_v2+_normz*_v3
  *if,_dot,gt,-.00001,then
    esel,u,elem,,_ecurr
  *else
    csys,11
    *get,_indd,elem,_ecurr,aproj,x
    csys,0
    _total=_total+_indd
  *endif
*enddo
*get,_necurr,elem,,count
*if,_necurr,eq,0,then
  *msg,error
  NO ELEMENTS ARE SELECTED TO APPLY BEARING LOAD TO. & 
  IT IS LIKELY THAT THE BEARING LOAD IS IN THE WRONG DIRECTION
*endif
*set,_mag,800.
_mag=_mag/_total     
sfe,all,5,pres,0,_mag,0.,0.,800.
nsel,all
esel,all
/nopr
/gopr
nsub,1,1,1
time,1.
outres,erase
outres,all,none
outres,nsol,all,
outres,rsol,all
outres,strs,all,
outres,epel,all,
outres,eppl,all,
stabilize,off                   ! Stabilization turned OFF by user
! *********** WB SOLVE COMMAND ***********
! check interactive state
*get,ANSINTER_,active,,int
*if,ANSINTER_,ne,0,then
/eof
*endif
solve
/com *************** Write FE CONNECTORS ********* 
CEWRITE,file,ce,,INTE
/com,****************************************************
/com,*************** FINISHED SOLVE FOR LS 1 *************
*get,_wallasol,active,,time,wall
/nopr
*get,_numnode,node,0,count
*get,_numelem,elem,0,count
*get, _MAXELEMNUM, elem, 0, NUM, MAX
*get, _MAXNODENUM, node, 0, NUM, MAX,,,INTERNAL
*get, _MAXELEMTYPE, etyp, 0, NUM, MAX
*get, _MAXREALCONST, real, 0, NUM, MAX
/gopr
*get,_PCGITER,active,,solu,cgiter
/post1
xmlo,ENCODING,ISO-8859-1
xmlo,parm
/xml,parm,xml
fini
/gopr
*get,_walldone,active,,time,wall
_preptime=(_wallbsol-_wallstrt)*3600
_solvtime=(_wallasol-_wallbsol)*3600
_posttime=(_walldone-_wallasol)*3600
_totaltim=(_walldone-_wallstrt)*3600
/wb,file,end               ! done with WB generated input
